%nproc=2
# freq hf/6-31g*

 benzox-hf.log

0  1
C          -1.43478         0.73216         0.10454
C          -0.33131         1.42727        -0.15249
C           0.96754         0.73836        -0.32372
C           0.96755        -0.73835        -0.32373
C          -0.33131        -1.42727        -0.15249
C          -1.43477        -0.73216         0.10454
H          -2.37298         1.23738         0.25105
H          -0.36014         2.49747        -0.25508
H          -0.36013        -2.49747        -0.25509
H          -2.37297        -1.23739         0.25104
O           1.44622        -0.00000         0.77249
H           1.73950        -1.26788        -0.85587
H           1.73950         1.26789        -0.85586

