%nproc=2
# freq hf/sto-3g

 benzox-hf-sto.log

0  1
C           1.44046        -0.73850         0.11211
C           0.34715        -1.43558        -0.15569
C          -0.97367        -0.75234        -0.33122
C          -0.97367         0.75234        -0.33122
C           0.34714         1.43559        -0.15569
C           1.44046         0.73850         0.11211
H           2.39155        -1.23573         0.25811
H           0.37115        -2.51288        -0.26012
H           0.37115         2.51288        -0.26012
H           2.39155         1.23573         0.25811
O          -1.47877         0.00000         0.78853
H          -1.73121         1.28647        -0.90331
H          -1.73121        -1.28647        -0.90331

