%nproc=1
# opt hf/6-31g*

 benzox.log

0  1
C           1.44025        -0.72567         0.12333
C           0.32437        -1.43497        -0.18168
C          -0.97577        -0.76050        -0.31547
C          -0.97526         0.76079        -0.31544
C           0.32503         1.43489        -0.18187
C           1.44055         0.72517         0.12348
H           2.39341        -1.24286         0.26460
H           0.37532        -2.51256        -0.35892
H           0.37613         2.51246        -0.35904
H           2.39394         1.24188         0.26498
O          -1.43286         0.00030         0.79666
H          -1.77525         1.29079        -0.84944
H          -1.77574        -1.29035        -0.84958

