%nproc=2
# opt hf/3-21g

 oxepin-hf.log

0  1
C          -1.43762         0.66502         0.13904
C          -0.29372         1.50142        -0.24110
C           0.97402         1.15901        -0.10594
C           0.97402        -1.15901        -0.10594
C          -0.29372        -1.50142        -0.24110
C          -1.43762        -0.66502         0.13904
H          -2.34628         1.18339         0.39336
H          -0.49947         2.46562        -0.67197
H          -0.49947        -2.46562        -0.67197
H          -2.34628        -1.18339         0.39336
O           1.40144         0.00000         0.48528
H           1.78387        -1.79383        -0.41450
H           1.78387         1.79383        -0.41450

