%nproc=2
# freq hf/sto-3g

 ts-hf-sto.log

0  1
C           0.19931        -1.40387         0.68849
C          -0.24704        -0.30711         1.44609
C          -0.24704         0.97345         0.94540
C          -0.24704         0.97345        -0.94540
C          -0.24704        -0.30711        -1.44609
C           0.19931        -1.40387        -0.68849
H           0.33413        -2.35171         1.19540
H          -0.71406        -0.48732         2.40569
H          -0.71406        -0.48732        -2.40569
H           0.33413        -2.35171        -1.19540
O           0.73077         1.36869         0.00000
H          -0.77460         1.78947        -1.43906
H          -0.77460         1.78947         1.43906

