%nproc=2
# freq hf/3-21g

 benzox-hf-321g.log

0  1
C           1.43056        -0.73036         0.12063
C           0.33558        -1.42427        -0.16928
C          -0.95867        -0.75155        -0.35056
C          -0.95867         0.75155        -0.35056
C           0.33558         1.42427        -0.16928
C           1.43056         0.73036         0.12063
H           2.36500        -1.23056         0.28237
H           0.37137        -2.48946        -0.28344
H           0.37137         2.48946        -0.28344
H           2.36500         1.23056         0.28237
O          -1.46325         0.00000         0.81897
H          -1.72815         1.27421        -0.87953
H          -1.72815        -1.27422        -0.87953

