%nproc=4
# irc=calcfc hf/6-31g* 

 ts-hf.log

0  1
C          -1.39985         0.69769         0.16147
C          -0.30246         1.43785        -0.23761
C           0.98044         0.90958        -0.22906
C           0.98044        -0.90958        -0.22906
C          -0.30246        -1.43785        -0.23761
C          -1.39985        -0.69769         0.16147
H          -2.34635         1.19744         0.27083
H          -0.44614         2.41545        -0.66380
H          -0.44614        -2.41545        -0.66380
H          -2.34635        -1.19744         0.27083
O           1.32862         0.00000         0.73458
H           1.80926        -1.39254        -0.71419
H           1.80926         1.39254        -0.71419

