%nproc=4
# irc=calcfc b3lyp/svp

 ts.log

0  1
C           1.41399        -0.70371         0.16313
C           0.30600        -1.45066        -0.24152
C          -0.99007        -0.91990        -0.23037
C          -0.99006         0.91991        -0.23036
C           0.30602         1.45066        -0.24152
C           1.41401         0.70369         0.16313
H           2.37589        -1.21217         0.27758
H           0.45104        -2.44555        -0.67330
H           0.45109         2.44554        -0.67331
H           2.37592         1.21213         0.27757
O          -1.34430         0.00001         0.74631
H          -1.82945         1.41209        -0.73696
H          -1.82947        -1.41207        -0.73696

