%nproc=2
# freq hf/sto-3g

 oxepin-hf-sto.log

0  1
C           0.27564        -1.43190         0.66195
C          -0.21632        -0.31576         1.50596
C          -0.21632         0.95797         1.15792
C          -0.21632         0.95797        -1.15792
C          -0.21632        -0.31576        -1.50596
C           0.27564        -1.43190        -0.66195
H           0.59156        -2.32214         1.19351
H          -0.64012        -0.58452         2.46542
H          -0.64012        -0.58452        -2.46542
H           0.59156        -2.32214        -1.19351
O           0.40662         1.47953         0.00000
H          -0.63590         1.72667        -1.80704
H          -0.63590         1.72667         1.80704

