%nproc=4
# opt b3lyp/svp

 benzox2oxepinscan.log

0  1
C           0.70188         1.44947         0.11525
C           1.54299         0.28790        -0.19242
C           1.19469        -1.00295        -0.08664
C          -1.23017        -0.95931        -0.08650
C          -1.53151         0.34320        -0.19256
C          -0.64914         1.47373         0.11522
H           1.23307         2.38327         0.32591
H           2.56476         0.48239        -0.53254
H          -2.54559         0.57435        -0.53279
H          -1.14657         2.42592         0.32600
O          -0.02670        -1.48041         0.38139
H          -1.94095        -1.75310        -0.33568
H           1.87646        -1.82175        -0.33612

