%nproc=4
#mp2/aug-cc-pvdz

 oxepin-bp86.log

0  1
C          -1.44733         0.68519         0.14860
C          -0.31019         1.51035        -0.23943
C           0.99352         1.15151        -0.12704
C           0.99352        -1.15151        -0.12704
C          -0.31020        -1.51035        -0.23943
C          -1.44733        -0.68518         0.14860
H          -2.39598         1.20763         0.36035
H          -0.51349         2.49933        -0.68520
H          -0.51350        -2.49933        -0.68520
H          -2.39598        -1.20763         0.36036
O           1.41803        -0.00000         0.53230
H           1.82134        -1.78400        -0.49719
H           1.82134         1.78400        -0.49719

