%nproc=1
%mem=4GB
%Chk=gradients-qmjob.chk
#P force hf/6-31g  Charge NoSymm Prop=(Read,Field) punch=derivatives Guess=Read

Generated by Zonkey

0 1
O 9618.09428853 -1463.92847741 -1284.60144372
H 981.830963345 3021.19108592 478.012299828
H -573.413432129 1803.25061559 -672.292730004

81.9621376843 932.01093073 -86.8895625774 -0.834
-84.0309526848 -768.543018511 82.430632614 0.417
2145.08618842 43485.8344147 -3043.98719985 0.417

81.9621376843 932.01093073 -86.8895625774
-84.0309526848 -768.543018511 82.430632614
2145.08618842 43485.8344147 -3043.98719985

