%nproc=4
%mem=4GB
%Chk=gradients-qmjob.chk
#P force hf/6-31g  Charge NoSymm Prop=(Read,Field) punch=derivatives Guess=Read

Generated by Zonkey

0 1
O 1.91848071703 -0.347694089473 -0.0912490996726
H 1.62747158401 2.07792345242 -1.72315092814
H 1.47635138133 2.0646169664 3.12232064009

-0.91836155665 0.911193586105 -0.121385067961 -0.834
-0.394055876708 1.10788419506 -0.897689248435 0.417
-1.01633822635 -0.0409094843229 -0.132880187202 0.417

-0.91836155665 0.911193586105 -0.121385067961
-0.394055876708 1.10788419506 -0.897689248435
-1.01633822635 -0.0409094843229 -0.132880187202

